100
optimized with VASP (BLYP-D3+U)
CU  10.464988  10.464988  11.471009
CU  12.209084  10.464988  13.300873
CU  10.464988  12.209094  13.300873
CU  10.464988   8.720882  13.300873
CU   8.720882  10.464988  13.300873
CU  13.953171  10.464988  15.150938
CU  12.209084  12.209094  15.150938
CU  12.209084   8.720882  15.150938
CU  10.464988   6.976795  15.150938
CU  10.464988  13.953181  15.150938
CU  10.464988  10.464988  15.150938
CU   8.720882  12.209094  15.150938
CU   8.720882   8.720882  15.150938
CU   6.976785  10.464988  15.150938
CU  13.953171  12.209094  16.979702
CU  13.953171   8.720882  16.979702
CU  12.209084   6.976795  16.979702
CU  12.209084  13.953181  16.979702
CU  12.209084  10.464988  16.979702
CU  10.464988   5.232289  16.979702
CU  10.464988  15.697277  16.979702
CU  10.464988  12.209094  16.979702
CU  10.464988   8.720882  16.979702
CU   8.720882   6.976795  16.979702
CU   8.720882  13.953181  16.979702
CU   8.720882  10.464988  16.979702
CU   6.976785  12.209094  16.979702
CU   6.976785   8.720882  16.979702
CU   5.232689  10.464988  16.979702
CU  15.697677  10.464988  16.979702
CU  13.955051   6.974885  18.840247
CU  13.955051  13.955091  18.840247
CU   3.480093  10.464988  18.854736
CU  13.945081  10.464988  18.854736
CU  12.207684   5.232289  18.837967
CU  12.207684  15.697277  18.837967
CU  12.204115  12.204095  18.851136
CU  12.204115   8.725882  18.851136
CU  10.464988   6.984915  18.854736
CU  10.464988  17.449903  18.854736
CU  10.464988   3.480073  18.854736
CU  10.464988  13.945061  18.854736
CU  10.464988  10.464988  18.897125
CU   8.722282   5.232289  18.837967
CU   8.722282  15.697277  18.837967
CU   8.725852  12.204095  18.851136
CU   8.725852   8.725882  18.851136
CU   6.974905   6.974885  18.840247
CU   6.974905  13.955091  18.840247
CU   6.984875  10.464988  18.854736
CU  17.449863  10.464988  18.854736
CU   5.232689  12.207684  18.837967
CU  15.697677  12.207684  18.837967
CU   5.232689   8.722292  18.837967
CU  15.697677   8.722292  18.837967
CU  13.967471   5.232289  20.723260
CU  13.967471  15.697277  20.723260
CU   3.514872  12.235824  20.697081
CU  13.979860  12.235824  20.697081
CU   3.514872   8.694152  20.697081
CU  13.979860   8.694152  20.697081
CU  12.235824   6.950086  20.697081
CU  12.235824  17.415074  20.697081
CU  12.235824   3.514902  20.697081
CU  12.235824  13.979890  20.697081
CU   1.810125  10.464988  20.751130
CU  12.275113  10.464988  20.751130
CU  10.464988   5.232289  20.707111
CU  10.464988  15.697277  20.707111
CU  10.464988   1.810145  20.751130
CU  10.464988  12.275133  20.751130
CU  10.464988   8.654843  20.751130
CU  10.464988  19.119831  20.751130
CU   8.694142   6.950086  20.697081
CU   8.694142  17.415074  20.697081
CU   8.694142   3.514902  20.697081
CU   8.694142  13.979890  20.697081
CU   8.654863  10.464988  20.751130
CU  19.119841  10.464988  20.751130
CU   6.962486   5.232289  20.723260
CU   6.962486  15.697277  20.723260
CU   6.950096  12.235824  20.697081
CU  17.415084  12.235824  20.697081
CU   6.950096   8.694152  20.697081
CU  17.415084   8.694152  20.697081
CU   5.232689  13.967511  20.723270
CU  15.697677  13.967511  20.723270
CU   5.232689  10.464988  20.707111
CU  15.697677  10.464988  20.707111
CU   5.232689   6.962466  20.723270
CU  15.697677   6.962466  20.723270
C  12.256174  10.464988  22.970487
C  10.464988  12.256184  22.970487
C  10.464988   8.673793  22.970487
C   8.673793  10.464988  22.970487
O  13.213835  10.464988  23.641654
O  10.464988  13.213845  23.641634
O  10.464988   7.716131  23.641634
O   7.716131  10.464988  23.641644
CO  10.464988  10.464988  22.566755
